Circuit: * C:\Users\EMELNIAP8\AppData\Local\LTspice\Transient_etaj1.asc

WARNING: Node NC_02 is floating.

WARNING: Less than two connections to node nc_01.  This node is used by v2.
WARNING: Less than two connections to node nc_02.  This node is used by v2.
Direct Newton iteration failed to find .op point.  (Use ".option noopiter" to skip.)
Starting Gmin stepping
Gmin = 10
Gmin = 1.07374
vernier = 0.5
vernier = 0.25
vernier = 0.125
vernier = 0.0625
vernier = 0.03125
Gmin = 1.0412
vernier = 0.015625
vernier = 0.0078125
Gmin = 1.0132
vernier = 0.00390625
vernier = 0.00195312
Gmin = 1.00827
vernier = 0.00260417
vernier = 0.00130208
Gmin = 1.00515
vernier = 0.000651042
vernier = 0.000868055
vernier = 0.000434028
Gmin = 1.00434
vernier = 0.000578703
vernier = 0.000434027
Gmin = 1.00339
Gmin = 0
Gmin stepping failed

Starting source stepping with srcstepmethod=0
Source Step = 3.0303%
Source Step = 33.3333%
Source Step = 63.6364%
Source Step = 93.9394%
Source stepping succeeded in finding the operating point.

N-Period=1
Fourier components of V(out)
DC component:-5.91649e-05

Harmonic	Frequency	 Fourier 	Normalized	 Phase  	Normalized
 Number 	  [Hz]   	Component	 Component	[degree]	Phase [deg]
    1   	 1.000e+3	 1.590e+0	 1.000e+0	   90.02°	    0.00°
    2   	 2.000e+3	 1.678e-4	 1.055e-4	   35.72°	  -54.30°
    3   	 3.000e+3	 7.698e-4	 4.843e-4	   46.69°	  -43.34°
    4   	 4.000e+3	 2.238e-4	 1.408e-4	 -171.54°	 -261.56°
    5   	 5.000e+3	 7.512e-4	 4.726e-4	 -140.52°	 -230.55°
    6   	 6.000e+3	 1.816e-4	 1.142e-4	  -76.35°	 -166.38°
    7   	 7.000e+3	 5.853e-4	 3.682e-4	   78.93°	  -11.09°
    8   	 8.000e+3	 4.606e-4	 2.898e-4	   15.98°	  -74.04°
    9   	 9.000e+3	 6.713e-4	 4.223e-4	  -36.26°	 -126.29°
   10   	 1.000e+4	 5.205e-4	 3.274e-4	  131.77°	   41.74°
Partial Harmonic Distortion: 0.100353%
Total Harmonic Distortion:   0.112898%



Date: Sun Feb 25 19:46:32 2024
Total elapsed time: 0.812 seconds.

tnom = 27
temp = 27
method = modified trap
totiter = 7806
traniter = 3002
tranpoints = 1502
accept = 1415
rejected = 87
matrix size = 21
fillins = 16
solver = Normal
Avg thread counts: 1.9/2.8/2.8/1.9
Matrix Compiler1: 1.43 KB object code size  0.7/0.5/[0.3]
Matrix Compiler2: 2.16 KB object code size  1.5/2.1/[0.7]

